simulator lang=spectre
V_wl_0  (WordLine_bar_0 gnd!) vsource type=pwl wave=\[0 0 500p 1.2\]
V_wl_1  (WordLine_bar_1 gnd!) vsource type=pwl wave=\[0 1.2 500p 0\]
